<?xml version="1.0" encoding="UTF-8"?>

<!-- generated on 2025-12-08T12:45:35.691737+01:00 by Eclipse SUMO netedit 1.25.0
-->

<routes xmlns:xsi="http://www.w3.org/2001/XMLSchema-instance" xsi:noNamespaceSchemaLocation="http://sumo.dlr.de/xsd/routes_file.xsd">
    <!-- Routes -->
    <route id="r_0" edges="E9 -E2 E1 E14.98 -E21.462 -E21.331 -E24 E7 E5 -E0.221 E4"/>
    <route id="r_1" edges="-E9 E10 -E8 -E7 -E9 E10 -E8 -E7 -E9 E10 E11"/>
    <route id="r_2" edges="E18 E20 -E19 -E10 E10 E19 E20.176"/>
    <!-- Vehicles, persons and containers (sorted by depart) -->
    <vehicle id="v_0" depart="0.00" route="r_0"/>
    <vehicle id="v_2" depart="0.00" color="red" route="r_1"/>
    <vehicle id="v_3" depart="0.00" color="blue" route="r_2"/>
</routes>
