<?xml version="1.0" encoding="UTF-8"?>

<!-- generated on 2025-12-07T19:55:43.626350+01:00 by Eclipse SUMO netedit 1.25.0
-->

<routes xmlns:xsi="http://www.w3.org/2001/XMLSchema-instance" xsi:noNamespaceSchemaLocation="http://sumo.dlr.de/xsd/routes_file.xsd">
    <!-- Routes -->
    <route id="r_0" edges="-E22 E9"/>
    <route id="r_1" edges="-E22"/>
    <!-- Vehicles, persons and containers (sorted by depart) -->
    <vehicle id="v_0" depart="0.00" route="r_1"/>
    <vehicle id="v_1" depart="0.00" route="r_1"/>
</routes>
