<?xml version="1.0" encoding="UTF-8"?>

<!-- generated on 2025-11-27T00:50:17.516952+01:00 by Eclipse SUMO netedit 1.25.0
-->

<routes xmlns:xsi="http://www.w3.org/2001/XMLSchema-instance" xsi:noNamespaceSchemaLocation="http://sumo.dlr.de/xsd/routes_file.xsd">
    <!-- Vehicles, persons and containers (sorted by depart) -->
    <trip id="t_0" depart="0.00" from="E22" to="-E24" via="-E21 -E23 -E18 E9 E24 -E21.331 E4 -E2 E7 -E8 E10 E18 E20 -E19 -E11 E12.171 E20.176 E19 E11 E12 -E0 -E5 E8 -E10 -E9 E2 -E0.221 E0 E16 -E15 -E6 E14 -E1 -E4 -E21.462 E14.98 -E14.207 -E14.360 -E17 -E16.106 -E12 -E12.171 -E20.176 -E20 E23 E21 E21.217"/>
</routes>
