<?xml version="1.0" encoding="UTF-8"?>

<!-- generated on 2025-12-12T01:07:49.649810+01:00 by Eclipse SUMO netedit 1.25.0
<neteditConfiguration xmlns:xsi="http://www.w3.org/2001/XMLSchema-instance" xsi:noNamespaceSchemaLocation="http://sumo.dlr.de/xsd/neteditConfiguration.xsd">

    <input>
        <sumocfg-file value="C:\Users\DELL\Sumo\2025-11-17-15-32-40\demo.sumocfg"/>
        <route-files value="C:\Users\DELL\Sumo\2025-11-17-15-32-40\demo.rou.xml"/>
        <sumo-net-file value="C:\Users\DELL\Sumo\2025-11-17-15-32-40\demo.net.xml"/>
    </input>

    <output>
        <output-file value="C:\Users\DELL\Sumo\2025-11-17-15-32-40\demo.net.xml"/>
    </output>

    <processing>
        <geometry.min-radius.fix.railways value="false"/>
        <geometry.avoid-overlap value="false"/>
        <geometry.max-grade.fix value="false"/>
        <offset.disable-normalization value="true"/>
        <lefthand value="0"/>
    </processing>

    <junctions>
        <no-turnarounds value="true"/>
        <junctions.corner-detail value="5"/>
        <junctions.limit-turn-speed value="5.50"/>
        <rectangular-lane-cut value="0"/>
    </junctions>

    <pedestrian>
        <walkingareas value="0"/>
    </pedestrian>

</neteditConfiguration>
-->

<net version="1.20" junctionCornerDetail="5" limitTurnSpeed="5.50" avoidOverlap="0" xmlns:xsi="http://www.w3.org/2001/XMLSchema-instance" xsi:noNamespaceSchemaLocation="http://sumo.dlr.de/xsd/net_file.xsd">

    <location netOffset="0.00,0.00" convBoundary="-276.53,-138.12,412.53,512.65" origBoundary="-10000000000.00,-10000000000.00,10000000000.00,10000000000.00" projParameter="!"/>

    <edge id=":clusterJ0_J21_0" function="internal">
        <lane id=":clusterJ0_J21_0_0" index="0" speed="13.89" length="20.80" shape="415.90,299.19 416.42,319.98"/>
        <lane id=":clusterJ0_J21_0_1" index="1" speed="13.89" length="20.80" shape="412.70,299.19 413.22,319.98"/>
    </edge>
    <edge id=":clusterJ0_J21_2" function="internal">
        <lane id=":clusterJ0_J21_2_0" index="0" speed="9.84" length="5.11" shape="412.70,299.19 412.12,304.27"/>
        <lane id=":clusterJ0_J21_2_1" index="1" speed="9.26" length="4.24" shape="412.70,299.19 412.09,303.39"/>
    </edge>
    <edge id=":clusterJ0_J21_4" function="internal">
        <lane id=":clusterJ0_J21_4_0" index="0" speed="4.72" length="1.47" shape="412.70,299.19 411.86,300.43"/>
        <lane id=":clusterJ0_J21_4_1" index="1" speed="3.65" length="1.47" shape="412.70,299.19 411.90,300.39"/>
    </edge>
    <edge id=":clusterJ0_J21_18" function="internal">
        <lane id=":clusterJ0_J21_18_0" index="0" speed="9.84" length="16.86" shape="412.12,304.27 411.94,305.83 409.68,310.58 405.94,313.42 400.70,314.38"/>
        <lane id=":clusterJ0_J21_18_1" index="0" speed="9.26" length="15.09" shape="412.09,303.39 411.94,304.43 409.69,308.18 405.94,310.42 400.70,311.18"/>
    </edge>
    <edge id=":clusterJ0_J21_19" function="internal">
        <lane id=":clusterJ0_J21_19_0" index="0" speed="4.72" length="7.85" shape="411.86,300.43 411.09,301.58 409.49,302.38 407.89,301.58 406.30,299.18"/>
        <lane id=":clusterJ0_J21_19_1" index="0" speed="3.65" length="3.23" shape="411.90,300.39 411.09,300.78 410.30,300.38 409.50,299.18"/>
    </edge>
    <edge id=":clusterJ0_J21_6" function="internal">
        <lane id=":clusterJ0_J21_6_0" index="0" speed="6.51" length="9.03" shape="400.69,304.78 403.14,304.43 404.89,303.37 405.94,301.63 406.30,299.18"/>
        <lane id=":clusterJ0_J21_6_1" index="1" speed="7.33" length="11.72" shape="400.69,304.78 404.54,304.42 407.29,303.38 408.94,301.63 409.50,299.18"/>
    </edge>
    <edge id=":clusterJ0_J21_8" function="internal">
        <lane id=":clusterJ0_J21_8_0" index="0" speed="10.45" length="24.95" shape="400.69,304.78 407.57,305.72 412.49,308.57 415.44,313.33 416.42,319.98"/>
        <lane id=":clusterJ0_J21_8_1" index="1" speed="9.35" length="19.78" shape="400.69,307.98 406.17,308.72 410.09,310.97 412.44,314.72 413.22,319.98"/>
    </edge>
    <edge id=":clusterJ0_J21_10" function="internal">
        <lane id=":clusterJ0_J21_10_0" index="0" speed="4.72" length="1.65" shape="400.69,307.98 402.24,309.01"/>
        <lane id=":clusterJ0_J21_10_1" index="1" speed="3.65" length="1.65" shape="400.69,307.98 401.89,308.78"/>
    </edge>
    <edge id=":clusterJ0_J21_20" function="internal">
        <lane id=":clusterJ0_J21_20_0" index="0" speed="4.72" length="7.48" shape="402.24,309.01 403.09,309.57 403.90,311.17 403.10,312.77 400.70,314.38"/>
        <lane id=":clusterJ0_J21_20_1" index="0" speed="3.65" length="3.23" shape="401.89,308.78 402.29,309.58 401.90,310.38 400.70,311.18"/>
    </edge>
    <edge id=":clusterJ0_J21_12" function="internal">
        <lane id=":clusterJ0_J21_12_0" index="0" speed="6.64" length="9.45" shape="406.82,319.97 406.43,317.52 405.29,315.77 403.38,314.72 400.70,314.38"/>
        <lane id=":clusterJ0_J21_12_1" index="1" speed="7.43" length="12.11" shape="406.82,319.97 406.44,316.12 405.29,313.37 403.38,311.72 400.70,311.18"/>
    </edge>
    <edge id=":clusterJ0_J21_14" function="internal">
        <lane id=":clusterJ0_J21_14_0" index="0" speed="13.89" length="20.80" shape="406.82,319.97 406.30,299.18"/>
        <lane id=":clusterJ0_J21_14_1" index="1" speed="13.89" length="20.80" shape="410.02,319.98 409.50,299.18"/>
    </edge>
    <edge id=":clusterJ0_J21_16" function="internal">
        <lane id=":clusterJ0_J21_16_0" index="0" speed="4.72" length="1.47" shape="410.02,319.98 410.85,318.73"/>
        <lane id=":clusterJ0_J21_16_1" index="1" speed="3.65" length="1.47" shape="410.02,319.98 410.82,318.78"/>
    </edge>
    <edge id=":clusterJ0_J21_21" function="internal">
        <lane id=":clusterJ0_J21_21_0" index="0" speed="4.72" length="7.85" shape="410.85,318.73 411.62,317.58 413.22,316.78 414.82,317.58 416.42,319.98"/>
        <lane id=":clusterJ0_J21_21_1" index="0" speed="3.65" length="3.23" shape="410.82,318.78 411.62,318.38 412.42,318.78 413.22,319.98"/>
    </edge>
    <edge id=":clusterJ12_J29_0" function="internal">
        <lane id=":clusterJ12_J29_0_0" index="0" speed="13.89" length="20.80" shape="416.13,163.30 416.09,184.10"/>
        <lane id=":clusterJ12_J29_0_1" index="1" speed="13.89" length="20.80" shape="412.93,163.29 412.89,184.09"/>
    </edge>
    <edge id=":clusterJ12_J29_2" function="internal">
        <lane id=":clusterJ12_J29_2_0" index="0" speed="9.85" length="6.29" shape="412.93,163.29 412.21,169.54"/>
        <lane id=":clusterJ12_J29_2_1" index="1" speed="9.26" length="5.01" shape="412.93,163.29 412.21,168.25"/>
    </edge>
    <edge id=":clusterJ12_J29_4" function="internal">
        <lane id=":clusterJ12_J29_4_0" index="0" speed="4.72" length="1.49" shape="412.93,163.29 412.08,164.57"/>
        <lane id=":clusterJ12_J29_4_1" index="1" speed="3.65" length="1.49" shape="412.93,163.29 412.13,164.49"/>
    </edge>
    <edge id=":clusterJ12_J29_18" function="internal">
        <lane id=":clusterJ12_J29_18_0" index="0" speed="9.85" length="15.70" shape="412.21,169.54 412.17,169.94 409.91,174.68 406.15,177.53 400.90,178.48"/>
        <lane id=":clusterJ12_J29_18_1" index="0" speed="9.26" length="14.35" shape="412.21,168.25 412.17,168.54 409.91,172.28 406.16,174.53 400.90,175.28"/>
    </edge>
    <edge id=":clusterJ12_J29_19" function="internal">
        <lane id=":clusterJ12_J29_19_0" index="0" speed="4.72" length="7.81" shape="412.08,164.57 411.32,165.69 409.72,166.49 408.12,165.69 406.53,163.28"/>
        <lane id=":clusterJ12_J29_19_1" index="0" speed="3.65" length="3.23" shape="412.13,164.49 411.33,164.89 410.53,164.49 409.73,163.29"/>
    </edge>
    <edge id=":clusterJ12_J29_6" function="internal">
        <lane id=":clusterJ12_J29_6_0" index="0" speed="6.52" length="9.05" shape="400.90,168.88 403.36,168.53 405.12,167.48 406.17,165.73 406.53,163.28"/>
        <lane id=":clusterJ12_J29_6_1" index="1" speed="7.33" length="11.74" shape="400.90,168.88 404.76,168.53 407.52,167.48 409.17,165.73 409.73,163.29"/>
    </edge>
    <edge id=":clusterJ12_J29_8" function="internal">
        <lane id=":clusterJ12_J29_8_0" index="0" speed="10.36" length="24.53" shape="400.90,168.88 407.56,169.83 412.31,172.68 415.15,177.44 416.09,184.10"/>
        <lane id=":clusterJ12_J29_8_1" index="1" speed="9.26" length="19.37" shape="400.90,172.08 406.16,172.83 409.91,175.08 412.15,178.84 412.89,184.09"/>
    </edge>
    <edge id=":clusterJ12_J29_10" function="internal">
        <lane id=":clusterJ12_J29_10_0" index="0" speed="4.72" length="1.67" shape="400.90,172.08 402.48,173.13"/>
        <lane id=":clusterJ12_J29_10_1" index="1" speed="3.65" length="1.67" shape="400.90,172.08 402.10,172.88"/>
    </edge>
    <edge id=":clusterJ12_J29_20" function="internal">
        <lane id=":clusterJ12_J29_20_0" index="0" speed="4.72" length="7.45" shape="402.48,173.13 403.30,173.68 404.10,175.28 403.30,176.88 400.90,178.48"/>
        <lane id=":clusterJ12_J29_20_1" index="0" speed="3.65" length="3.23" shape="402.10,172.88 402.50,173.68 402.10,174.48 400.90,175.28"/>
    </edge>
    <edge id=":clusterJ12_J29_12" function="internal">
        <lane id=":clusterJ12_J29_12_0" index="0" speed="6.50" length="9.03" shape="406.49,184.08 406.15,181.63 405.10,179.88 403.35,178.83 400.90,178.48"/>
        <lane id=":clusterJ12_J29_12_1" index="1" speed="7.32" length="11.73" shape="406.49,184.08 406.15,180.23 405.10,177.48 403.35,175.83 400.90,175.28"/>
    </edge>
    <edge id=":clusterJ12_J29_14" function="internal">
        <lane id=":clusterJ12_J29_14_0" index="0" speed="13.89" length="20.80" shape="406.49,184.08 406.53,163.28"/>
        <lane id=":clusterJ12_J29_14_1" index="1" speed="13.89" length="20.80" shape="409.69,184.09 409.73,163.29"/>
    </edge>
    <edge id=":clusterJ12_J29_16" function="internal">
        <lane id=":clusterJ12_J29_16_0" index="0" speed="4.72" length="1.49" shape="409.69,184.09 410.55,182.81"/>
        <lane id=":clusterJ12_J29_16_1" index="1" speed="3.65" length="1.49" shape="409.69,184.09 410.50,182.89"/>
    </edge>
    <edge id=":clusterJ12_J29_21" function="internal">
        <lane id=":clusterJ12_J29_21_0" index="0" speed="4.72" length="7.81" shape="410.55,182.81 411.30,181.69 412.90,180.89 414.50,181.70 416.09,184.10"/>
        <lane id=":clusterJ12_J29_21_1" index="0" speed="3.65" length="3.23" shape="410.50,182.89 411.30,182.49 412.10,182.89 412.89,184.09"/>
    </edge>
    <edge id=":clusterJ14_clusterJ13_J5_0" function="internal">
        <lane id=":clusterJ14_clusterJ13_J5_0_0" index="0" speed="13.89" length="14.40" shape="-281.33,42.67 -281.33,28.27"/>
        <lane id=":clusterJ14_clusterJ13_J5_0_1" index="1" speed="13.89" length="14.40" shape="-278.13,42.67 -278.13,28.27"/>
    </edge>
    <edge id=":clusterJ14_clusterJ13_J5_2" function="internal">
        <lane id=":clusterJ14_clusterJ13_J5_2_0" index="0" speed="8.79" length="3.60" shape="-278.13,42.67 -277.41,39.14"/>
    </edge>
    <edge id=":clusterJ14_clusterJ13_J5_3" function="internal">
        <lane id=":clusterJ14_clusterJ13_J5_3_0" index="0" disallow="pedestrian" speed="4.72" length="1.49" shape="-278.13,42.67 -277.28,41.39"/>
        <lane id=":clusterJ14_clusterJ13_J5_3_1" index="1" disallow="pedestrian" speed="3.65" length="1.49" shape="-278.13,42.67 -277.33,41.47"/>
    </edge>
    <edge id=":clusterJ14_clusterJ13_J5_15" function="internal">
        <lane id=":clusterJ14_clusterJ13_J5_15_0" index="0" speed="8.79" length="13.66" shape="-277.41,39.14 -277.35,38.83 -275.01,36.08 -271.10,34.42 -265.64,33.85"/>
    </edge>
    <edge id=":clusterJ14_clusterJ13_J5_16" function="internal">
        <lane id=":clusterJ14_clusterJ13_J5_16_0" index="0" disallow="pedestrian" speed="4.72" length="7.81" shape="-277.28,41.39 -276.53,40.27 -274.93,39.47 -273.33,40.27 -271.73,42.67"/>
        <lane id=":clusterJ14_clusterJ13_J5_16_1" index="0" disallow="pedestrian" speed="3.65" length="3.23" shape="-277.33,41.47 -276.53,41.07 -275.73,41.47 -274.93,42.67"/>
    </edge>
    <edge id=":clusterJ14_clusterJ13_J5_5" function="internal">
        <lane id=":clusterJ14_clusterJ13_J5_5_0" index="0" disallow="pedestrian" speed="6.65" length="9.45" shape="-265.62,37.05 -268.29,37.41 -270.20,38.47 -271.35,40.22 -271.73,42.67"/>
        <lane id=":clusterJ14_clusterJ13_J5_5_1" index="1" disallow="pedestrian" speed="7.46" length="12.17" shape="-265.62,37.05 -269.69,37.42 -272.60,38.48 -274.35,40.23 -274.93,42.67"/>
    </edge>
    <edge id=":clusterJ14_clusterJ13_J5_7" function="internal">
        <lane id=":clusterJ14_clusterJ13_J5_7_0" index="0" speed="9.41" length="20.09" shape="-265.62,37.05 -272.49,36.53 -277.40,34.89 -280.35,32.14 -281.33,28.27"/>
        <lane id=":clusterJ14_clusterJ13_J5_7_1" index="1" speed="8.76" length="17.29" shape="-265.62,37.05 -271.09,36.52 -275.00,34.88 -277.35,32.13 -278.13,28.27"/>
    </edge>
    <edge id=":clusterJ14_clusterJ13_J5_9" function="internal">
        <lane id=":clusterJ14_clusterJ13_J5_9_0" index="0" speed="3.65" length="1.44" shape="-265.62,37.05 -266.83,36.26"/>
    </edge>
    <edge id=":clusterJ14_clusterJ13_J5_17" function="internal">
        <lane id=":clusterJ14_clusterJ13_J5_17_0" index="0" speed="3.65" length="3.23" shape="-266.83,36.26 -267.23,35.46 -266.83,34.66 -265.64,33.85"/>
    </edge>
    <edge id=":clusterJ14_clusterJ13_J5_10" function="internal">
        <lane id=":clusterJ14_clusterJ13_J5_10_0" index="0" disallow="pedestrian" speed="6.62" length="9.43" shape="-271.73,28.27 -271.35,30.72 -270.21,32.47 -268.30,33.51 -265.64,33.85"/>
    </edge>
    <edge id=":clusterJ14_clusterJ13_J5_11" function="internal">
        <lane id=":clusterJ14_clusterJ13_J5_11_0" index="0" disallow="pedestrian" speed="13.89" length="14.40" shape="-271.73,28.27 -271.73,42.67"/>
        <lane id=":clusterJ14_clusterJ13_J5_11_1" index="1" disallow="pedestrian" speed="13.89" length="14.40" shape="-274.93,28.27 -274.93,42.67"/>
    </edge>
    <edge id=":clusterJ14_clusterJ13_J5_13" function="internal">
        <lane id=":clusterJ14_clusterJ13_J5_13_0" index="0" disallow="pedestrian" speed="4.72" length="1.49" shape="-274.93,28.27 -275.78,29.55"/>
        <lane id=":clusterJ14_clusterJ13_J5_13_1" index="1" disallow="pedestrian" speed="3.65" length="1.49" shape="-274.93,28.27 -275.73,29.47"/>
    </edge>
    <edge id=":clusterJ14_clusterJ13_J5_18" function="internal">
        <lane id=":clusterJ14_clusterJ13_J5_18_0" index="0" disallow="pedestrian" speed="4.72" length="7.81" shape="-275.78,29.55 -276.53,30.67 -278.13,31.47 -279.73,30.67 -281.33,28.27"/>
        <lane id=":clusterJ14_clusterJ13_J5_18_1" index="0" disallow="pedestrian" speed="3.65" length="3.23" shape="-275.73,29.47 -276.53,29.87 -277.33,29.47 -278.13,28.27"/>
    </edge>
    <edge id=":clusterJ16_J30_0" function="internal">
        <lane id=":clusterJ16_J30_0_0" index="0" speed="13.89" length="20.79" shape="-46.74,517.11 -67.53,517.14"/>
        <lane id=":clusterJ16_J30_0_1" index="1" speed="13.89" length="20.79" shape="-46.74,513.91 -67.53,513.94"/>
    </edge>
    <edge id=":clusterJ16_J30_2" function="internal">
        <lane id=":clusterJ16_J30_2_0" index="0" speed="9.84" length="6.29" shape="-46.74,513.91 -53.00,513.22"/>
        <lane id=":clusterJ16_J30_2_1" index="1" speed="9.25" length="5.01" shape="-46.74,513.91 -51.71,513.21"/>
    </edge>
    <edge id=":clusterJ16_J30_4" function="internal">
        <lane id=":clusterJ16_J30_4_0" index="0" speed="4.72" length="1.49" shape="-46.74,513.91 -48.02,513.06"/>
        <lane id=":clusterJ16_J30_4_1" index="1" speed="3.65" length="1.49" shape="-46.74,513.91 -47.94,513.11"/>
    </edge>
    <edge id=":clusterJ16_J30_18" function="internal">
        <lane id=":clusterJ16_J30_18_0" index="0" speed="9.84" length="15.71" shape="-53.00,513.22 -53.40,513.17 -58.15,510.93 -61.00,507.18 -61.95,501.92"/>
        <lane id=":clusterJ16_J30_18_1" index="0" speed="9.25" length="14.34" shape="-51.71,513.21 -52.00,513.17 -55.75,510.92 -58.00,507.18 -58.75,501.92"/>
    </edge>
    <edge id=":clusterJ16_J30_19" function="internal">
        <lane id=":clusterJ16_J30_19_0" index="0" speed="4.72" length="7.81" shape="-48.02,513.06 -49.15,512.32 -49.95,510.72 -49.15,509.12 -46.75,507.51"/>
        <lane id=":clusterJ16_J30_19_1" index="0" speed="3.65" length="3.23" shape="-47.94,513.11 -48.35,512.31 -47.95,511.51 -46.75,510.71"/>
    </edge>
    <edge id=":clusterJ16_J30_6" function="internal">
        <lane id=":clusterJ16_J30_6_0" index="0" speed="6.51" length="9.03" shape="-52.37,501.92 -52.01,504.37 -50.95,506.12 -49.20,507.17 -46.75,507.51"/>
        <lane id=":clusterJ16_J30_6_1" index="1" speed="7.33" length="11.72" shape="-52.37,501.92 -52.00,505.77 -50.94,508.52 -49.19,510.17 -46.75,510.71"/>
    </edge>
    <edge id=":clusterJ16_J30_8" function="internal">
        <lane id=":clusterJ16_J30_8_0" index="0" speed="10.35" length="24.51" shape="-52.37,501.92 -53.29,508.57 -56.12,513.33 -60.87,516.18 -67.53,517.14"/>
        <lane id=":clusterJ16_J30_8_1" index="1" speed="9.25" length="19.35" shape="-55.57,501.92 -56.29,507.18 -58.53,510.93 -62.28,513.19 -67.53,513.94"/>
    </edge>
    <edge id=":clusterJ16_J30_10" function="internal">
        <lane id=":clusterJ16_J30_10_0" index="0" speed="4.72" length="1.65" shape="-55.57,501.92 -56.60,503.47"/>
        <lane id=":clusterJ16_J30_10_1" index="1" speed="3.65" length="1.65" shape="-55.57,501.92 -56.36,503.12"/>
    </edge>
    <edge id=":clusterJ16_J30_20" function="internal">
        <lane id=":clusterJ16_J30_20_0" index="0" speed="4.72" length="7.47" shape="-56.60,503.47 -57.16,504.32 -58.76,505.12 -60.35,504.32 -61.95,501.92"/>
        <lane id=":clusterJ16_J30_20_1" index="0" speed="3.65" length="3.22" shape="-56.36,503.12 -57.16,503.52 -57.95,503.12 -58.75,501.92"/>
    </edge>
    <edge id=":clusterJ16_J30_12" function="internal">
        <lane id=":clusterJ16_J30_12_0" index="0" speed="6.51" length="9.04" shape="-67.54,507.54 -65.10,507.19 -63.35,506.13 -62.30,504.38 -61.95,501.92"/>
        <lane id=":clusterJ16_J30_12_1" index="1" speed="7.33" length="11.73" shape="-67.54,507.54 -63.70,507.19 -60.95,506.13 -59.30,504.38 -58.75,501.92"/>
    </edge>
    <edge id=":clusterJ16_J30_14" function="internal">
        <lane id=":clusterJ16_J30_14_0" index="0" speed="13.89" length="20.79" shape="-67.54,507.54 -46.75,507.51"/>
        <lane id=":clusterJ16_J30_14_1" index="1" speed="13.89" length="20.79" shape="-67.54,510.74 -46.75,510.71"/>
    </edge>
    <edge id=":clusterJ16_J30_16" function="internal">
        <lane id=":clusterJ16_J30_16_0" index="0" speed="4.72" length="1.49" shape="-67.54,510.74 -66.26,511.59"/>
        <lane id=":clusterJ16_J30_16_1" index="1" speed="3.65" length="1.49" shape="-67.54,510.74 -66.34,511.54"/>
    </edge>
    <edge id=":clusterJ16_J30_21" function="internal">
        <lane id=":clusterJ16_J30_21_0" index="0" speed="4.72" length="7.81" shape="-66.26,511.59 -65.13,512.34 -64.33,513.94 -65.13,515.54 -67.53,517.14"/>
        <lane id=":clusterJ16_J30_21_1" index="0" speed="3.65" length="3.23" shape="-66.34,511.54 -65.93,512.34 -66.33,513.14 -67.53,513.94"/>
    </edge>
    <edge id=":clusterJ17_J26_clusterJ78_clusterJ68_clusterJ36_J38_0" function="internal">
        <lane id=":clusterJ17_J26_clusterJ78_clusterJ68_clusterJ36_J38_0_0" index="0" speed="6.50" length="9.03" shape="-61.95,322.79 -62.30,320.34 -63.35,318.59 -65.10,317.54 -67.55,317.20"/>
        <lane id=":clusterJ17_J26_clusterJ78_clusterJ68_clusterJ36_J38_0_1" index="1" speed="7.32" length="11.72" shape="-61.95,322.79 -62.30,318.94 -63.35,316.19 -65.10,314.54 -67.55,314.00"/>
    </edge>
    <edge id=":clusterJ17_J26_clusterJ78_clusterJ68_clusterJ36_J38_2" function="internal">
        <lane id=":clusterJ17_J26_clusterJ78_clusterJ68_clusterJ36_J38_2_0" index="0" speed="13.89" length="23.37" shape="-61.95,322.79 -60.62,299.44"/>
        <lane id=":clusterJ17_J26_clusterJ78_clusterJ68_clusterJ36_J38_2_1" index="1" speed="13.89" length="23.37" shape="-58.75,322.77 -57.42,299.45"/>
    </edge>
    <edge id=":clusterJ17_J26_clusterJ78_clusterJ68_clusterJ36_J38_4" function="internal">
        <lane id=":clusterJ17_J26_clusterJ78_clusterJ68_clusterJ36_J38_4_0" index="0" speed="10.22" length="5.68" shape="-58.75,322.77 -57.66,317.20"/>
        <lane id=":clusterJ17_J26_clusterJ78_clusterJ68_clusterJ36_J38_4_1" index="1" speed="9.69" length="9.83" shape="-58.75,322.77 -57.59,317.73 -55.05,313.82"/>
    </edge>
    <edge id=":clusterJ17_J26_clusterJ78_clusterJ68_clusterJ36_J38_6" function="internal">
        <lane id=":clusterJ17_J26_clusterJ78_clusterJ68_clusterJ36_J38_6_0" index="0" speed="4.48" length="2.71" shape="-58.75,322.77 -57.35,320.66 -56.96,320.46"/>
        <lane id=":clusterJ17_J26_clusterJ78_clusterJ68_clusterJ36_J38_6_1" index="1" speed="3.34" length="2.71" shape="-58.75,322.77 -58.15,321.86 -57.55,321.56 -56.94,321.86"/>
    </edge>
    <edge id=":clusterJ17_J26_clusterJ78_clusterJ68_clusterJ36_J38_32" function="internal">
        <lane id=":clusterJ17_J26_clusterJ78_clusterJ68_clusterJ36_J38_32_0" index="0" speed="10.22" length="18.10" shape="-57.66,317.20 -57.60,316.89 -54.59,311.14 -50.32,306.78 -45.42,305.05"/>
        <lane id=":clusterJ17_J26_clusterJ78_clusterJ68_clusterJ36_J38_32_1" index="0" speed="9.69" length="11.45" shape="-55.05,313.82 -54.55,313.05 -50.27,309.60 -45.42,308.25"/>
    </edge>
    <edge id=":clusterJ17_J26_clusterJ78_clusterJ68_clusterJ36_J38_33" function="internal">
        <lane id=":clusterJ17_J26_clusterJ78_clusterJ68_clusterJ36_J38_33_0" index="0" speed="4.48" length="5.23" shape="-56.96,320.46 -55.95,319.95 -54.54,320.65 -53.13,322.75"/>
        <lane id=":clusterJ17_J26_clusterJ78_clusterJ68_clusterJ36_J38_33_1" index="0" speed="3.34" length="1.09" shape="-56.94,321.86 -56.33,322.76"/>
    </edge>
    <edge id=":clusterJ17_J26_clusterJ78_clusterJ68_clusterJ36_J38_8" function="internal">
        <lane id=":clusterJ17_J26_clusterJ78_clusterJ68_clusterJ36_J38_8_0" index="0" speed="7.61" length="12.76" shape="-45.42,314.65 -48.80,315.16 -51.22,316.68 -52.66,319.21 -53.13,322.75"/>
        <lane id=":clusterJ17_J26_clusterJ78_clusterJ68_clusterJ36_J38_8_1" index="1" speed="8.31" length="15.41" shape="-45.42,314.65 -50.20,315.16 -53.62,316.68 -55.66,319.22 -56.33,322.76"/>
    </edge>
    <edge id=":clusterJ17_J26_clusterJ78_clusterJ68_clusterJ36_J38_10" function="internal">
        <lane id=":clusterJ17_J26_clusterJ78_clusterJ68_clusterJ36_J38_10_0" index="0" speed="13.89" length="22.32" shape="-45.42,314.65 -51.69,315.05 -56.48,315.92 -61.28,316.80 -67.55,317.20"/>
        <lane id=":clusterJ17_J26_clusterJ78_clusterJ68_clusterJ36_J38_10_1" index="1" speed="13.89" length="22.32" shape="-45.42,311.45 -51.69,311.85 -56.49,312.72 -61.28,313.60 -67.55,314.00"/>
    </edge>
    <edge id=":clusterJ17_J26_clusterJ78_clusterJ68_clusterJ36_J38_12" function="internal">
        <lane id=":clusterJ17_J26_clusterJ78_clusterJ68_clusterJ36_J38_12_0" index="0" speed="9.84" length="4.06" shape="-45.42,311.45 -49.45,311.00"/>
        <lane id=":clusterJ17_J26_clusterJ78_clusterJ68_clusterJ36_J38_12_1" index="1" speed="9.26" length="3.50" shape="-45.42,311.45 -48.89,310.96"/>
    </edge>
    <edge id=":clusterJ17_J26_clusterJ78_clusterJ68_clusterJ36_J38_14" function="internal">
        <lane id=":clusterJ17_J26_clusterJ78_clusterJ68_clusterJ36_J38_14_0" index="0" speed="4.72" length="1.45" shape="-45.42,311.45 -46.62,310.65"/>
        <lane id=":clusterJ17_J26_clusterJ78_clusterJ68_clusterJ36_J38_14_1" index="1" speed="3.65" length="1.45" shape="-45.42,311.45 -46.62,310.65"/>
    </edge>
    <edge id=":clusterJ17_J26_clusterJ78_clusterJ68_clusterJ36_J38_34" function="internal">
        <lane id=":clusterJ17_J26_clusterJ78_clusterJ68_clusterJ36_J38_34_0" index="0" speed="9.84" length="17.95" shape="-49.45,311.00 -52.07,310.71 -56.83,308.46 -59.67,304.70 -60.62,299.44"/>
        <lane id=":clusterJ17_J26_clusterJ78_clusterJ68_clusterJ36_J38_34_1" index="0" speed="9.26" length="15.86" shape="-48.89,310.96 -50.67,310.71 -54.43,308.46 -56.67,304.70 -57.42,299.45"/>
    </edge>
    <edge id=":clusterJ17_J26_clusterJ78_clusterJ68_clusterJ36_J38_35" function="internal">
        <lane id=":clusterJ17_J26_clusterJ78_clusterJ68_clusterJ36_J38_35_0" index="0" speed="4.72" length="7.90" shape="-46.62,310.65 -47.82,309.85 -48.62,308.26 -47.82,306.65 -45.42,305.05"/>
        <lane id=":clusterJ17_J26_clusterJ78_clusterJ68_clusterJ36_J38_35_1" index="0" speed="3.65" length="3.23" shape="-46.62,310.65 -47.02,309.85 -46.62,309.05 -45.42,308.25"/>
    </edge>
    <edge id=":clusterJ17_J26_clusterJ78_clusterJ68_clusterJ36_J38_16" function="internal">
        <lane id=":clusterJ17_J26_clusterJ78_clusterJ68_clusterJ36_J38_16_0" index="0" speed="6.50" length="9.03" shape="-51.02,299.45 -50.67,301.91 -49.62,303.66 -47.87,304.70 -45.42,305.05"/>
        <lane id=":clusterJ17_J26_clusterJ78_clusterJ68_clusterJ36_J38_16_1" index="1" speed="7.32" length="11.73" shape="-51.02,299.45 -50.67,303.31 -49.62,306.06 -47.87,307.70 -45.42,308.25"/>
    </edge>
    <edge id=":clusterJ17_J26_clusterJ78_clusterJ68_clusterJ36_J38_18" function="internal">
        <lane id=":clusterJ17_J26_clusterJ78_clusterJ68_clusterJ36_J38_18_0" index="0" speed="13.89" length="23.42" shape="-51.02,299.45 -51.36,305.91 -52.09,311.10 -52.82,316.30 -53.13,322.75"/>
        <lane id=":clusterJ17_J26_clusterJ78_clusterJ68_clusterJ36_J38_18_1" index="1" speed="13.89" length="23.42" shape="-54.22,299.45 -54.56,305.91 -55.29,311.11 -56.02,316.31 -56.33,322.76"/>
    </edge>
    <edge id=":clusterJ17_J26_clusterJ78_clusterJ68_clusterJ36_J38_20" function="internal">
        <lane id=":clusterJ17_J26_clusterJ78_clusterJ68_clusterJ36_J38_20_0" index="0" speed="10.22" length="7.89" shape="-54.22,299.45 -55.37,305.34 -56.25,307.02"/>
        <lane id=":clusterJ17_J26_clusterJ78_clusterJ68_clusterJ36_J38_20_1" index="1" speed="9.70" length="6.79" shape="-54.22,299.45 -55.38,304.50 -56.26,305.85"/>
    </edge>
    <edge id=":clusterJ17_J26_clusterJ78_clusterJ68_clusterJ36_J38_22" function="internal">
        <lane id=":clusterJ17_J26_clusterJ78_clusterJ68_clusterJ36_J38_22_0" index="0" speed="4.72" length="1.53" shape="-54.22,299.45 -55.12,300.79"/>
        <lane id=":clusterJ17_J26_clusterJ78_clusterJ68_clusterJ36_J38_22_1" index="1" speed="3.65" length="1.53" shape="-54.22,299.45 -55.02,300.65"/>
    </edge>
    <edge id=":clusterJ17_J26_clusterJ78_clusterJ68_clusterJ36_J38_36" function="internal">
        <lane id=":clusterJ17_J26_clusterJ78_clusterJ68_clusterJ36_J38_36_0" index="0" speed="10.22" length="15.90" shape="-56.25,307.02 -58.39,311.10 -62.66,315.46 -67.55,317.20"/>
        <lane id=":clusterJ17_J26_clusterJ78_clusterJ68_clusterJ36_J38_36_1" index="0" speed="9.70" length="14.52" shape="-56.26,305.85 -58.42,309.19 -62.70,312.65 -67.55,314.00"/>
    </edge>
    <edge id=":clusterJ17_J26_clusterJ78_clusterJ68_clusterJ36_J38_37" function="internal">
        <lane id=":clusterJ17_J26_clusterJ78_clusterJ68_clusterJ36_J38_37_0" index="0" speed="4.72" length="7.73" shape="-55.12,300.79 -55.82,301.85 -57.42,302.65 -59.02,301.85 -60.62,299.44"/>
        <lane id=":clusterJ17_J26_clusterJ78_clusterJ68_clusterJ36_J38_37_1" index="0" speed="3.65" length="3.23" shape="-55.02,300.65 -55.82,301.05 -56.62,300.65 -57.42,299.45"/>
    </edge>
    <edge id=":clusterJ17_J26_clusterJ78_clusterJ68_clusterJ36_J38_24" function="internal">
        <lane id=":clusterJ17_J26_clusterJ78_clusterJ68_clusterJ36_J38_24_0" index="0" speed="7.46" length="12.18" shape="-67.56,307.60 -64.53,307.08 -62.36,305.55 -61.06,303.01 -60.62,299.44"/>
        <lane id=":clusterJ17_J26_clusterJ78_clusterJ68_clusterJ36_J38_24_1" index="1" speed="8.16" length="14.78" shape="-67.56,307.60 -63.13,307.08 -59.96,305.55 -58.06,303.01 -57.42,299.45"/>
    </edge>
    <edge id=":clusterJ17_J26_clusterJ78_clusterJ68_clusterJ36_J38_26" function="internal">
        <lane id=":clusterJ17_J26_clusterJ78_clusterJ68_clusterJ36_J38_26_0" index="0" speed="13.89" length="22.32" shape="-67.56,307.60 -61.29,307.20 -56.49,306.32 -51.69,305.45 -45.42,305.05"/>
        <lane id=":clusterJ17_J26_clusterJ78_clusterJ68_clusterJ36_J38_26_1" index="1" speed="13.89" length="22.32" shape="-67.56,310.80 -61.29,310.40 -56.49,309.52 -51.69,308.65 -45.42,308.25"/>
    </edge>
    <edge id=":clusterJ17_J26_clusterJ78_clusterJ68_clusterJ36_J38_28" function="internal">
        <lane id=":clusterJ17_J26_clusterJ78_clusterJ68_clusterJ36_J38_28_0" index="0" speed="9.70" length="3.93" shape="-67.56,310.80 -63.65,311.26"/>
        <lane id=":clusterJ17_J26_clusterJ78_clusterJ68_clusterJ36_J38_28_1" index="1" speed="9.12" length="3.35" shape="-67.56,310.80 -64.24,311.30"/>
    </edge>
    <edge id=":clusterJ17_J26_clusterJ78_clusterJ68_clusterJ36_J38_30" function="internal">
        <lane id=":clusterJ17_J26_clusterJ78_clusterJ68_clusterJ36_J38_30_0" index="0" speed="4.72" length="1.45" shape="-67.56,310.80 -66.35,311.60"/>
        <lane id=":clusterJ17_J26_clusterJ78_clusterJ68_clusterJ36_J38_30_1" index="1" speed="3.65" length="1.45" shape="-67.56,310.80 -66.36,311.59"/>
    </edge>
    <edge id=":clusterJ17_J26_clusterJ78_clusterJ68_clusterJ36_J38_38" function="internal">
        <lane id=":clusterJ17_J26_clusterJ78_clusterJ68_clusterJ36_J38_38_0" index="0" speed="9.70" length="17.36" shape="-63.65,311.26 -61.27,311.54 -56.76,313.78 -54.05,317.51 -53.13,322.75"/>
        <lane id=":clusterJ17_J26_clusterJ78_clusterJ68_clusterJ36_J38_38_1" index="0" speed="9.12" length="15.34" shape="-64.24,311.30 -62.67,311.54 -59.16,313.78 -57.05,317.52 -56.33,322.76"/>
    </edge>
    <edge id=":clusterJ17_J26_clusterJ78_clusterJ68_clusterJ36_J38_39" function="internal">
        <lane id=":clusterJ17_J26_clusterJ78_clusterJ68_clusterJ36_J38_39_0" index="0" speed="4.72" length="7.90" shape="-66.35,311.60 -65.16,312.39 -64.35,313.99 -65.15,315.59 -67.55,317.20"/>