<?xml version="1.0" encoding="UTF-8"?>

<!-- generated on 2025-12-12T01:08:00.245214+01:00 by Eclipse SUMO sumo 1.25.0
-->

<sumoConfiguration xmlns:xsi="http://www.w3.org/2001/XMLSchema-instance" xsi:noNamespaceSchemaLocation="http://sumo.dlr.de/xsd/sumoConfiguration.xsd">

    <input>
        <net-file value="demo.net.xml"/>
        <route-files value="demo.rou.xml"/>
    </input>

</sumoConfiguration>
